Circuit: * C:\Users\favre\Documents\ELN1Projekt\MOSFETCiruitEnable.asc

Direct Newton iteration for .op point succeeded.

Date: Wed May 06 14:01:48 2020
Total elapsed time: 0.091 seconds.

tnom = 27
temp = 27
method = modified trap
totiter = 2452
traniter = 2448
tranpoints = 1138
accept = 1122
rejected = 16
matrix size = 9
fillins = 0
solver = Normal
Matrix Compiler1: 394 bytes object code size  0.1/0.1/[0.1]
Matrix Compiler2: off  [0.1]/0.1/0.1

