Circuit: * C:\Users\favre\Documents\ELN1Projekt\SimulationProbeModelAsymetry.asc

Direct Newton iteration for .op point succeeded.

Date: Wed May 06 10:07:15 2020
Total elapsed time: 2.175 seconds.

tnom = 27
temp = 27
method = modified trap
totiter = 616177
traniter = 616162
tranpoints = 289068
accept = 265139
rejected = 23929
matrix size = 18
fillins = 4
solver = Normal
Matrix Compiler1: 1.08 KB object code size  0.3/0.2/[0.1]
Matrix Compiler2: 1.88 KB object code size  0.2/0.2/[0.2]

