Circuit: * C:\Users\favre\Documents\ELN1Projekt\SimulationProbeModel.asc

WARNING: Less than two connections to node VCC.  This node is used by V2.
Direct Newton iteration for .op point succeeded.
.step index=1
.step index=2
.step index=3
.step index=4
.step index=5

Date: Thu May 07 09:22:54 2020
Total elapsed time: 0.742 seconds.

tnom = 27
temp = 27
method = modified trap
totiter = 43621
traniter = 43618
tranpoints = 21810
accept = 21415
rejected = 395
matrix size = 7
fillins = 0
solver = Normal
Matrix Compiler1: 196 bytes object code size  0.1/0.1/[0.0]
Matrix Compiler2: off  [0.1]/0.1/0.1

